Version 4
SHEET 1 1260 1140
WIRE 432 -368 352 -368
WIRE 592 -368 496 -368
WIRE 592 -320 592 -368
WIRE 656 -320 592 -320
WIRE 656 -304 656 -320
WIRE 336 -240 224 -240
WIRE 352 -240 352 -368
WIRE 352 -240 336 -240
WIRE 384 -240 352 -240
WIRE 592 -240 592 -320
WIRE 592 -240 528 -240
WIRE 224 -224 224 -240
WIRE 720 -224 688 -224
WIRE 848 -224 800 -224
WIRE 384 -208 336 -208
WIRE 688 -208 688 -224
WIRE 688 -208 528 -208
WIRE 384 -176 352 -176
WIRE 656 -176 656 -240
WIRE 656 -176 528 -176
WIRE 224 -144 224 -160
WIRE 352 -144 224 -144
WIRE 384 -144 352 -144
WIRE 720 -144 528 -144
WIRE 848 -144 800 -144
WIRE 352 -112 352 -144
WIRE -432 -96 -432 -176
WIRE -304 -96 -304 -176
WIRE -432 32 -432 -16
WIRE -304 32 -304 -16
WIRE 48 48 -128 48
WIRE 512 48 144 48
WIRE 704 48 512 48
WIRE 864 48 704 48
WIRE 1040 48 944 48
WIRE 1184 48 1040 48
WIRE 704 112 704 48
WIRE 1040 144 1040 48
WIRE 1184 144 1184 48
WIRE -128 160 -128 48
WIRE 128 160 128 96
WIRE 656 192 608 192
WIRE -432 208 -432 160
WIRE -128 320 -128 240
WIRE 704 320 704 208
WIRE 704 320 -128 320
WIRE 1040 320 1040 208
WIRE 1040 320 704 320
WIRE 1184 320 1184 224
WIRE 1184 320 1040 320
WIRE -432 336 -432 288
FLAG 1040 320 0
FLAG 1040 48 Vo
FLAG 512 48 Vd
FLAG -432 160 PWM
FLAG 336 -208 PWM
FLAG -432 336 0
FLAG -432 32 0
FLAG -432 -176 Vcc
FLAG 336 -240 Vcc
FLAG 656 -176 Vd
FLAG 352 -112 0
FLAG 848 -224 V_M1
FLAG 848 -144 V_M2
FLAG 128 160 V_M1
FLAG 608 192 V_M2
FLAG 352 -176 V_en
FLAG -304 32 0
FLAG -304 -176 V_en
SYMBOL voltage -128 144 R0
WINDOW 123 0 0 Left 0
WINDOW 39 0 0 Left 0
SYMATTR InstName V1
SYMATTR Value 36
SYMBOL ind 848 64 R270
WINDOW 0 32 56 VTop 2
WINDOW 3 5 56 VBottom 2
SYMATTR InstName L1
SYMATTR Value 200µ
SYMBOL cap 1024 144 R0
SYMATTR InstName C1
SYMATTR Value 1µ
SYMBOL res 1168 128 R0
SYMATTR InstName R1
SYMATTR Value 100
SYMBOL nmos 48 96 R270
SYMATTR InstName M1
SYMATTR Value IRFZ44N
SYMBOL nmos 656 112 R0
SYMATTR InstName M2
SYMATTR Value IRFZ44N
SYMBOL ir2104 416 -224 R0
SYMATTR InstName X1
SYMBOL voltage -432 -112 R0
SYMATTR InstName V4
SYMATTR Value 10
SYMBOL voltage -432 192 R0
WINDOW 3 -181 110 Left 2
SYMATTR InstName V5
SYMATTR Value PULSE(0 5 0 1n 1n 1.17u 5u)
SYMBOL cap 208 -224 R0
SYMATTR InstName C2
SYMATTR Value 10µ
SYMBOL schottky 432 -352 R270
WINDOW 0 32 32 VTop 2
WINDOW 3 0 32 VBottom 2
SYMATTR InstName D1
SYMATTR Value 1N5819
SYMATTR Description Diode
SYMATTR Type diode
SYMBOL res 816 -240 R90
WINDOW 0 0 56 VBottom 2
WINDOW 3 32 56 VTop 2
SYMATTR InstName R2
SYMATTR Value 10
SYMBOL res 816 -160 R90
WINDOW 0 0 56 VBottom 2
WINDOW 3 32 56 VTop 2
SYMATTR InstName R3
SYMATTR Value 10
SYMBOL cap 640 -304 R0
SYMATTR InstName C3
SYMATTR Value 22µ
SYMBOL voltage -304 -112 R0
SYMATTR InstName V2
SYMATTR Value 10
TEXT 288 352 Left 2 !.tran 0 10m 0
TEXT -472 -368 Left 2 !.include IR2104.sub
