Version 4
SHEET 1 1260 680
WIRE 48 48 -128 48
WIRE 304 48 144 48
WIRE 512 48 304 48
WIRE 704 48 512 48
WIRE 864 48 704 48
WIRE 1040 48 944 48
WIRE 1184 48 1040 48
WIRE 704 112 704 48
WIRE 1040 144 1040 48
WIRE 1184 144 1184 48
WIRE -128 160 -128 48
WIRE 128 192 128 96
WIRE 144 192 128 192
WIRE 304 192 304 48
WIRE 304 192 224 192
WIRE 656 192 592 192
WIRE 592 224 592 192
WIRE -128 320 -128 240
WIRE 592 320 592 304
WIRE 592 320 -128 320
WIRE 704 320 704 208
WIRE 704 320 592 320
WIRE 1040 320 1040 208
WIRE 1040 320 704 320
WIRE 1184 320 1184 224
WIRE 1184 320 1040 320
FLAG 1040 320 0
FLAG 1040 48 Vo
FLAG 512 48 Vd
SYMBOL voltage -128 144 R0
WINDOW 123 0 0 Left 0
WINDOW 39 0 0 Left 0
SYMATTR InstName V1
SYMATTR Value 12
SYMBOL voltage 128 192 R270
WINDOW 3 -57 195 VLeft 2
WINDOW 123 0 0 Left 0
WINDOW 39 0 0 Left 0
SYMATTR Value PULSE(0 12 0 1n 1n 2.65u 5u)
SYMATTR InstName V2
SYMBOL ind 848 64 R270
WINDOW 0 32 56 VTop 2
WINDOW 3 5 56 VBottom 2
SYMATTR InstName L1
SYMATTR Value 800µ
SYMBOL cap 1024 144 R0
SYMATTR InstName C1
SYMATTR Value 1µ
SYMBOL res 1168 128 R0
SYMATTR InstName R1
SYMATTR Value 635
SYMBOL nmos 48 96 R270
SYMATTR InstName M1
SYMATTR Value IRFZ44N
SYMBOL nmos 656 112 R0
SYMATTR InstName M2
SYMATTR Value IRFZ44N
SYMBOL voltage 592 208 R0
SYMATTR InstName V3
SYMATTR Value PULSE(12 0 0 1n 1n 2.65u 5u)
TEXT 288 352 Left 2 !.tran 0 10m 0
