Version 4
SHEET 1 880 680
WIRE 560 -128 304 -128
WIRE 304 32 304 -128
WIRE 80 64 48 64
WIRE 240 80 144 80
WIRE 560 80 560 -128
WIRE 80 96 -48 96
WIRE -304 112 -304 80
WIRE -48 128 -48 96
WIRE -304 224 -304 192
WIRE 48 256 48 64
WIRE 304 256 304 128
WIRE 304 256 48 256
WIRE 304 288 304 256
WIRE -48 512 -48 208
WIRE -48 512 -64 512
WIRE 304 512 304 368
WIRE 304 512 -48 512
WIRE 560 512 560 160
WIRE 560 512 304 512
FLAG 112 112 0
FLAG -304 224 0
FLAG -304 80 VCC
FLAG 112 48 VCC
FLAG 304 512 0
SYMBOL voltage -48 112 R0
WINDOW 123 0 0 Left 0
WINDOW 39 0 0 Left 0
SYMATTR InstName V1
SYMATTR Value 1.2
SYMBOL voltage 560 64 R0
WINDOW 123 0 0 Left 0
WINDOW 39 0 0 Left 0
SYMATTR InstName V2
SYMATTR Value 5
SYMBOL res 288 272 R0
SYMATTR InstName R1
SYMATTR Value R=16*(1-time)
SYMBOL OpAmps\\UniversalOpAmp2 112 80 R0
SYMATTR InstName LM358
SYMBOL npn 240 32 R0
SYMATTR InstName Q1
SYMATTR Value BC547B
SYMBOL voltage -304 96 R0
WINDOW 123 0 0 Left 0
WINDOW 39 0 0 Left 0
SYMATTR InstName V3
SYMATTR Value 6
TEXT -640 296 Left 2 !.tran 0.9999
TEXT -720 -104 Left 2 !.include librerias/complex_discretes.lib
