Version 4
SHEET 1 880 680
WIRE -64 -16 -112 -16
WIRE 64 -16 -64 -16
WIRE 192 -16 64 -16
WIRE 432 -16 288 -16
WIRE 432 32 432 -16
WIRE 240 80 240 48
WIRE 64 96 64 -16
WIRE 80 96 64 96
WIRE 240 96 240 80
WIRE 240 96 160 96
WIRE -112 112 -112 -16
WIRE 240 144 240 96
WIRE 432 176 432 112
WIRE 432 176 272 176
WIRE 432 240 432 176
WIRE -112 336 -112 192
WIRE 240 336 240 208
WIRE 240 336 -112 336
WIRE 432 336 432 320
WIRE 432 336 240 336
WIRE 240 352 240 336
FLAG 240 352 0
FLAG -64 -16 Vin
FLAG 432 176 r
FLAG 240 80 vb
SYMBOL tl431 256 144 M0
SYMATTR InstName U1
SYMBOL npn 192 48 R270
SYMATTR InstName Q1
SYMATTR Value BC847B
SYMBOL res 176 80 R90
WINDOW 0 0 56 VBottom 2
WINDOW 3 32 56 VTop 2
SYMATTR InstName R1
SYMATTR Value 3.3k
SYMBOL voltage -112 96 R0
WINDOW 123 0 0 Left 0
WINDOW 39 0 0 Left 0
SYMATTR InstName V1
SYMATTR Value 12
SYMBOL res 416 16 R0
SYMATTR InstName R2
SYMATTR Value 10k
SYMBOL res 416 224 R0
SYMATTR InstName R3
SYMATTR Value 18k
TEXT -144 376 Left 2 !.op
