Version 4
SHEET 1 4080 1172
WIRE 528 -288 432 -288
WIRE 672 -288 592 -288
WIRE 256 -208 256 -256
WIRE 1952 -176 1872 -176
WIRE 2112 -176 2016 -176
WIRE 336 -160 304 -160
WIRE 2112 -128 2112 -176
WIRE 2176 -128 2112 -128
WIRE 112 -112 112 -160
WIRE 2176 -112 2176 -128
WIRE 80 -96 32 -96
WIRE 512 -96 512 -128
WIRE 256 -80 256 -128
WIRE 256 -80 144 -80
WIRE 304 -80 304 -160
WIRE 304 -80 256 -80
WIRE 336 -80 304 -80
WIRE 432 -80 432 -288
WIRE 432 -80 416 -80
WIRE 480 -80 432 -80
WIRE 80 -64 64 -64
WIRE 672 -64 672 -288
WIRE 672 -64 544 -64
WIRE 720 -64 672 -64
WIRE 480 -48 432 -48
WIRE 1856 -48 1744 -48
WIRE 1872 -48 1872 -176
WIRE 1872 -48 1856 -48
WIRE 1904 -48 1872 -48
WIRE 2112 -48 2112 -128
WIRE 2112 -48 2048 -48
WIRE 1744 -32 1744 -48
WIRE 112 -16 112 -48
WIRE 1904 -16 1856 -16
WIRE 2336 -16 2048 -16
WIRE 2464 -16 2416 -16
WIRE -96 16 -96 -96
WIRE 512 16 512 -32
WIRE 1904 16 1872 16
WIRE 2176 16 2176 -48
WIRE 2176 16 2048 16
WIRE 1744 48 1744 32
WIRE 1872 48 1744 48
WIRE 1904 48 1872 48
WIRE 2240 48 2048 48
WIRE 2368 48 2320 48
WIRE 64 64 64 -64
WIRE 128 64 64 64
WIRE 256 64 256 -80
WIRE 256 64 208 64
WIRE 1584 80 1520 80
WIRE 1696 80 1648 80
WIRE 1872 80 1872 48
WIRE 1088 96 1088 16
WIRE 1216 96 1216 16
WIRE 784 144 784 80
WIRE 64 160 64 64
WIRE 176 160 64 160
WIRE 672 160 672 -64
WIRE 672 160 256 160
WIRE 752 160 672 160
WIRE 832 176 816 176
WIRE 880 176 832 176
WIRE 752 192 624 192
WIRE -96 224 -96 96
WIRE 1088 224 1088 176
WIRE 1216 224 1216 176
WIRE 1520 240 1520 80
WIRE 1520 240 1392 240
WIRE 1568 240 1520 240
WIRE 1696 240 1696 80
WIRE 1696 240 1664 240
WIRE 2032 240 1696 240
WIRE 2224 240 2032 240
WIRE 2320 240 2224 240
WIRE 2384 240 2320 240
WIRE 2560 240 2464 240
WIRE 2640 240 2560 240
WIRE 2704 240 2640 240
WIRE 32 272 32 -96
WIRE 432 272 432 -48
WIRE 432 272 32 272
WIRE 2224 304 2224 240
WIRE 784 320 784 208
WIRE 2320 320 2320 240
WIRE 2560 336 2560 240
WIRE 2704 336 2704 240
WIRE 1392 352 1392 240
WIRE 1648 352 1648 288
WIRE 2176 384 2128 384
WIRE 112 432 112 384
WIRE 32 448 32 272
WIRE 80 448 32 448
WIRE 432 464 432 272
WIRE 432 464 144 464
WIRE -64 480 -256 480
WIRE 80 480 -64 480
WIRE -64 496 -64 480
WIRE -256 512 -256 480
WIRE 1392 512 1392 432
WIRE 2224 512 2224 400
WIRE 2224 512 1392 512
WIRE 2320 512 2320 384
WIRE 2320 512 2224 512
WIRE 2560 512 2560 400
WIRE 2560 512 2320 512
WIRE 2704 512 2704 416
WIRE 2704 512 2560 512
WIRE 112 544 112 496
WIRE -256 624 -256 592
WIRE -64 640 -64 576
WIRE 2128 656 2032 656
WIRE 2272 656 2192 656
WIRE 2032 720 2032 656
WIRE 2064 720 2032 720
WIRE 2176 720 2144 720
WIRE 2272 720 2272 656
WIRE 2272 720 2240 720
WIRE 2640 720 2640 240
WIRE 2400 752 2336 752
WIRE 2544 752 2480 752
WIRE 2272 832 2272 720
WIRE 2272 832 2208 832
WIRE 2336 832 2336 752
WIRE 2336 832 2272 832
WIRE 2352 832 2336 832
WIRE 2432 832 2416 832
WIRE 2544 832 2544 752
WIRE 2544 832 2512 832
WIRE 2640 832 2640 800
WIRE 2640 832 2544 832
WIRE 624 848 624 192
WIRE 2032 848 2032 720
WIRE 2032 848 624 848
WIRE 2144 848 2032 848
WIRE 2272 864 2208 864
WIRE 2640 880 2640 832
WIRE 2272 912 2272 864
WIRE 2176 960 2176 880
WIRE 2640 976 2640 960
WIRE 2272 1024 2272 992
FLAG -64 640 0
FLAG -96 224 0
FLAG 512 16 0
FLAG 112 544 0
FLAG 784 320 0
FLAG 112 -16 0
FLAG -96 -96 VCC
IOPIN -96 -96 BiDir
FLAG 112 -160 VCC
IOPIN 112 -160 BiDir
FLAG 512 -128 VCC
IOPIN 512 -128 BiDir
FLAG 112 384 VCC
IOPIN 112 384 BiDir
FLAG 336 -160 Va
IOPIN 336 -160 Out
FLAG 720 -64 Vb
IOPIN 720 -64 Out
FLAG 784 80 VCC
IOPIN 784 80 BiDir
FLAG -256 624 0
FLAG 256 -256 VCC
IOPIN 256 -256 BiDir
FLAG 832 96 VCC
IOPIN 832 96 BiDir
FLAG 2560 512 0
FLAG 2560 240 Vo
FLAG 2032 240 Vd
FLAG 1856 -16 PWM
FLAG 1088 224 0
FLAG 1088 16 Vcc_d
FLAG 1856 -48 Vcc_d
FLAG 2176 16 Vd
FLAG 1872 80 0
FLAG 2464 -16 V_M1
FLAG 2368 48 V_M2
FLAG 1648 352 V_M1
FLAG 2128 384 V_M2
FLAG 1872 16 V_en
FLAG 1216 224 0
FLAG 1216 16 V_en
FLAG 880 176 PWM
FLAG 2176 960 0
FLAG 2272 1024 0
FLAG 2640 976 0
FLAG 2176 816 VCC
IOPIN 2176 816 BiDir
SYMBOL res 432 -96 R90
WINDOW 0 0 56 VBottom 2
WINDOW 3 32 56 VTop 2
SYMATTR InstName R1
SYMATTR Value 6.2k
SYMBOL res -80 480 R0
SYMATTR InstName R2
SYMATTR Value 100k
SYMBOL voltage -96 0 R0
WINDOW 123 0 0 Left 0
WINDOW 39 0 0 Left 0
SYMATTR InstName V1
SYMATTR Value 12
SYMBOL res 224 48 R90
WINDOW 0 0 56 VBottom 2
WINDOW 3 32 56 VTop 2
SYMATTR InstName R3
SYMATTR Value 390k
SYMBOL res 272 144 R90
WINDOW 0 0 56 VBottom 2
WINDOW 3 32 56 VTop 2
SYMATTR InstName R4
SYMATTR Value 10k
SYMBOL cap 592 -304 R90
WINDOW 0 0 32 VBottom 2
WINDOW 3 32 32 VTop 2
SYMATTR InstName C1
SYMATTR Value 470p
SYMBOL OpAmps\\ADTL082 512 -128 R0
SYMATTR InstName U1
SYMBOL OpAmps\\ADTL082 112 400 R0
SYMATTR InstName U2
SYMBOL voltage -256 496 R0
WINDOW 123 0 0 Left 0
WINDOW 39 0 0 Left 0
SYMATTR InstName V3
SYMATTR Value 4
SYMBOL OpAmps\\opamp2 112 -144 R0
SYMATTR InstName U3
SYMATTR Value LM393A
SYMBOL res 240 -224 R0
SYMATTR InstName R5
SYMATTR Value 1k
SYMBOL OpAmps\\opamp2 784 112 R0
SYMATTR InstName U4
SYMATTR Value LM393A
SYMBOL res 816 80 R0
SYMATTR InstName R6
SYMATTR Value 10k
SYMBOL voltage 1392 336 R0
WINDOW 123 0 0 Left 0
WINDOW 39 0 0 Left 0
SYMATTR InstName V4
SYMATTR Value 36
SYMBOL ind 2368 256 R270
WINDOW 0 32 56 VTop 2
WINDOW 3 5 56 VBottom 2
SYMATTR InstName L1
SYMATTR Value 250µ
SYMBOL cap 2544 336 R0
SYMATTR InstName C2
SYMATTR Value 2.7µ
SYMBOL res 2688 320 R0
SYMATTR InstName R7
SYMATTR Value {RLOAD}
SYMBOL nmos 1568 288 R270
SYMATTR InstName M1
SYMATTR Value IRFZ44N
SYMBOL nmos 2176 304 R0
WINDOW 3 170 75 Left 2
SYMATTR Value IRFZ44N
SYMATTR InstName M2
SYMBOL voltage 1088 80 R0
SYMATTR InstName V5
SYMATTR Value 10
SYMBOL cap 1728 -32 R0
SYMATTR InstName C3
SYMATTR Value 10µ
SYMBOL schottky 1952 -160 R270
WINDOW 0 32 32 VTop 2
WINDOW 3 0 32 VBottom 2
SYMATTR InstName D1
SYMATTR Value 1N5819
SYMATTR Description Diode
SYMATTR Type diode
SYMBOL res 2432 -32 R90
WINDOW 0 0 56 VBottom 2
WINDOW 3 32 56 VTop 2
SYMATTR InstName R8
SYMATTR Value 10
SYMBOL res 2336 32 R90
WINDOW 0 0 56 VBottom 2
WINDOW 3 32 56 VTop 2
SYMATTR InstName R9
SYMATTR Value 10
SYMBOL cap 2160 -112 R0
SYMATTR InstName C4
SYMATTR Value 22µ
SYMBOL voltage 1216 80 R0
WINDOW 123 0 0 Left 0
WINDOW 39 0 0 Left 0
SYMATTR InstName V7
SYMATTR Value {V_enable}
SYMBOL ir2104 1936 -32 R0
SYMATTR InstName X1
SYMBOL cap 2416 816 R90
WINDOW 0 0 32 VBottom 2
WINDOW 3 32 32 VTop 2
SYMATTR InstName C6
SYMATTR Value 1n
SYMBOL cap 2240 704 R90
WINDOW 0 0 32 VBottom 2
WINDOW 3 32 32 VTop 2
SYMATTR InstName C7
SYMATTR Value 220n
SYMBOL res 2160 704 R90
WINDOW 0 0 56 VBottom 2
WINDOW 3 32 56 VTop 2
SYMATTR InstName R13
SYMATTR Value 1k
SYMBOL res 2528 816 R90
WINDOW 0 0 56 VBottom 2
WINDOW 3 32 56 VTop 2
SYMATTR InstName R14
SYMATTR Value 220
SYMBOL res 2496 736 R90
WINDOW 0 0 56 VBottom 2
WINDOW 3 32 56 VTop 2
SYMATTR InstName R15
SYMATTR Value 33k
SYMBOL voltage 2272 896 R0
WINDOW 123 24 116 Left 2
WINDOW 39 0 0 Left 2
SYMATTR Value2 AC 0
SYMATTR InstName Vref1
SYMATTR Value 4
SYMBOL cap 2192 640 R90
WINDOW 0 0 32 VBottom 2
WINDOW 3 32 32 VTop 2
SYMATTR InstName C8
SYMATTR Value 1n
SYMBOL res 2624 704 R0
SYMATTR InstName R10
SYMATTR Value 10k
SYMBOL res 2624 864 R0
SYMATTR InstName R11
SYMATTR Value 17k
SYMBOL schottky 1648 64 R90
WINDOW 0 0 32 VBottom 2
WINDOW 3 32 32 VTop 2
SYMATTR InstName D2
SYMATTR Value 1N5819
SYMATTR Description Diode
SYMATTR Type diode
SYMBOL schottky 2336 384 R180
WINDOW 0 24 64 Left 2
WINDOW 3 24 0 Left 2
SYMATTR InstName D3
SYMATTR Value 1N5819
SYMATTR Description Diode
SYMATTR Type diode
SYMBOL OpAmps\\LT1215 2176 784 M0
SYMATTR InstName U6
TEXT 1808 544 Left 2 !.tran 0 7m 0 startup uic
TEXT 1392 -264 Left 2 !.include IR2104.sub
TEXT 1112 -264 Left 2 !.param Vin=36
TEXT 1104 -312 Left 2 ;PARAMETROS
TEXT 1112 -224 Left 2 !.param T=5u
TEXT 1112 -184 Left 2 !.param D=1.22u
TEXT 1112 -144 Left 2 !.param V_enable=3
TEXT 1400 -312 Left 2 ;MODELOS
TEXT 3072 -256 Left 2 !* LM393A VOLTAGE COMPARATOR "MACROMODEL" SUBCIRCUIT\n* CREATED USING PARTS VERSION 4.03 ON 03/07/90 AT 14:17\n* REV (N/A)\n* CONNECTIONS:   NON-INVERTING INPUT\n*                | INVERTING INPUT\n*                | | POSITIVE POWER SUPPLY\n*                | | | NEGATIVE POWER SUPPLY\n*                | | | | OPEN COLLECTOR OUTPUT\n*                | | | | |\n.SUBCKT LM393A   1 2 3 4 5\n*\n  F1    9  3 V1 1\n  IEE   3  7 DC 100.0E-6\n  VI1  21  1 DC .75\n  VI2  22  2 DC .75\n  Q1    9 21  7 QIN\n  Q2    8 22  7 QIN\n  Q3    9  8  4 QMO\n  Q4    8  8  4 QMI\n.MODEL QIN PNP(IS=800.0E-18 BF=2.000E3)\n.MODEL QMI NPN(IS=800.0E-18 BF=1002)\n.MODEL QMO NPN(IS=800.0E-18 BF=1000 CJC=1E-15 TR=807.4E-9)\n  E1   10  4  9  4  1\n  V1   10 11 DC 0\n  Q5    5 11  4 QOC\n.MODEL QOC NPN(IS=800.0E-18 BF=20.29E3 CJC=1E-15 TF=942.6E-12 TR=543.8E-9)\n  DP    4  3 DX\n  RP 3  4 46.3E3\n.MODEL DX  D(IS=800.0E-18)\n*\n.ENDS
TEXT 1104 -112 Left 2 !.step param RLOAD list 4 635
